18
naphthalene radical
C     2.4584929186   -0.6980401434    0.0000208854
C     2.4584830542    0.6980208281    0.0000273558
C     1.2392834454    1.4064616303    0.0000201346
C    -0.0000127820    0.7187236077    0.0000072068
C    -1.2393189424    1.4064428097    0.0000009527
C    -2.4585398474    0.6980627613   -0.0000119130
C    -2.4584830245   -0.6980052848   -0.0000182990
C    -1.2392726206   -1.4064393494   -0.0000121035
C     0.0000166810   -0.7186826023    0.0000005670
C     1.2392855074   -1.4064696461    0.0000073561
H     1.2470800358   -2.4919577916    0.0000018617
H    -1.2470920207   -2.4919275393   -0.0000168975
H    -3.3951566422   -1.2429180456   -0.0000277271
H    -3.3952681112    1.2428765068   -0.0000168560
H    -1.2469606339    2.4919363439    0.0000063915
H     1.2471333000    2.4919523490    0.0000239494
H     3.3951743890    1.2429028846    0.0000376679
H     3.3951863936   -1.2429173191    0.0000261673
