46
/home/fren5/AutoSolvate-update/AutoSolvate/autosolvate/tests/inputs/ionpair.pdb
S          3.19500        0.41600        1.49200
O          4.02100        0.24700        0.15100
O          1.79100        0.90800        0.94300
O          3.88000        1.70800        2.11200
O          3.24700       -0.79000        2.26500
N          2.96700        7.11900        0.24400
C          4.14800        7.04800        1.24200
C          1.73300        6.51500        0.94400
C          2.60700        8.58400       -0.05400
C          3.25600        6.37000       -1.07300
C          5.64200        6.92500        0.80400
C          0.35600        6.58300        0.23100
C          3.67900        9.57100       -0.55200
C          3.18300        4.81400       -1.14600
C          6.44500        8.23800        0.77700
C         -0.71300        5.80400        1.01900
C          3.03500       10.88900       -1.02100
C          4.38900        4.07200       -0.54100
H          4.06700        7.79100        2.04200
H          3.91100        6.08100        1.69200
H          1.93300        5.47100        1.20100
H          1.65000        7.06400        1.88800
H          1.81200        8.56300       -0.80600
H          2.18100        8.99900        0.86500
H          4.16700        6.70300       -1.57800
H          2.42500        6.73700       -1.67900
H          5.76100        6.42200       -0.15300
H          6.12900        6.28000        1.54000
H          0.41900        6.16600       -0.77500
H          0.02600        7.62100        0.14000
H          4.25300        9.13800       -1.37400
H          4.35500        9.81100        0.26700
H          2.26300        4.43900       -0.69400
H          3.12500        4.53600       -2.20100
H          7.51500        8.01400        0.81500
H          6.20400        8.87100        1.63400
H          6.27300        8.79000       -0.14700
H         -1.68700        5.90800        0.53400
H         -0.46400        4.74100        1.06000
H         -0.79800        6.18400        2.04000
H          3.80700       11.59900       -1.32600
H          2.37100       10.71800       -1.87100
H          2.45500       11.34400       -0.21300
H          5.31600        4.36900       -1.03500
H          4.26900        2.99700       -0.68500
H          4.47900        4.25400        0.53000
