63
Coordinates from ORCA-job Kcryptand_small_opt.orca
  K   -1.73648466759230      0.31576044273332     -1.35284705954284
  N   -1.33426313128893      3.17997964091559     -0.40807572243224
  N   -2.38095993551422     -2.53703758695445     -2.58371889411049
  C   -0.57287435065143      3.06197166447542      0.86484874821977
  C   0.63448038895094      2.12325857084592      0.79634627785548
  H   -1.24427546692374      2.67566421636229      1.63926319058967
  H   -0.21333348301386      4.05241957046549      1.21281849929109
  O   0.16992274234912      0.74535762858386      0.63626495024833
  H   1.20316226667428      2.20965498273614      1.73696720331704
  H   1.30789007934583      2.38072055528657     -0.03598433316615
  C   1.26336867922401     -0.22083395534042      0.54450157019833
  C   0.68324100469244     -1.62449235278254      0.50304687208322
  H   1.91761405749521     -0.13059981353182      1.42716330468068
  H   1.85918335532501     -0.02837317586027     -0.36216852641254
  O   -0.01871011686097     -1.82204222002607     -0.76770479671011
  H   -0.01578252735102     -1.76803775836493      1.34209696901262
  H   1.50387303942345     -2.35511003506107      0.59126345018504
  C   -0.50521841291184     -3.19077730987155     -0.93865744824444
  C   -1.16062706172261     -3.34572443310199     -2.31564275412154
  H   -1.19059018473673     -3.44399354962099     -0.11777954014585
  H   0.34800695140806     -3.88844392036719     -0.88935075020573
  H   -1.36933105587540     -4.42682271353863     -2.45851991968212
  H   -0.40217867146867     -3.06926655260587     -3.05706534330500
  C   -3.62238561987386     -3.06476555920230     -1.95589793165469
  C   -3.86586240216467     -2.65308481336262     -0.48908462686316
  H   -3.65644556704718     -4.17395364924386     -1.99345066712836
  H   -4.47383184374314     -2.70868720746606     -2.54836902687458
  O   -3.85554279998249     -1.21199845570363     -0.25903328316602
  H   -3.09412975362395     -3.04142787904780      0.17875382344004
  H   -4.83267790846309     -3.07659646384092     -0.16747828698046
  C   -5.05997145077241     -0.48247693855540     -0.65414843149850
  C   -5.07067096028870      0.83157708761581      0.11257524418960
  H   -5.95970462830204     -1.06285364188005     -0.39306466876717
  H   -5.06033821334545     -0.29120960292153     -1.73816216499185
  O   -3.96450321605771      1.66017802876171     -0.36873395381531
  H   -4.94825558079259      0.62810759992172      1.18754231343364
  H   -6.02532237082420      1.35756410529931     -0.05050182580877
  C   -3.70174207236109      2.81978418477182      0.48275533998803
  C   -2.69684472784548      3.74533127026821     -0.20709209381038
  H   -3.34550104682196      2.47345642336136      1.46577860738732
  H   -4.63584238996260      3.38418129132949      0.63974280231185
  H   -2.65467120531403      4.68940417205445      0.37584307172679
  H   -3.10989366073816      3.99708312242692     -1.19081713877159
  C   -0.59118373835107      3.94732415004234     -1.44566084063690
  C   -0.92057505640145      3.52312956798181     -2.87793636825704
  H   0.48368613566943      3.79803825256908     -1.30480853514206
  H   -0.78135965518361      5.03471275078639     -1.34938584698702
  O   -0.35495957904261      2.18903831205618     -3.09986632115852
  H   -0.46124379623928      4.23544860620191     -3.58281641951298
  H   -2.00759707789643      3.51398885619780     -3.05174089743788
  C   -0.35848245301933      1.74739102600038     -4.49482197109129
  C   -1.73593402579947      1.24216454624643     -4.94708079858534
  H   0.38522786570805      0.94439945363551     -4.54103045795613
  H   -0.02729858481073      2.56603011964817     -5.15530820592954
  O   -2.18789561519089      0.08593082611492     -4.17172655581144
  H   -1.70665712210004      0.99274744815646     -6.02045144027532
  H   -2.50404597186774      2.00803534037211     -4.79447259343554
  C   -1.66505375466557     -1.20668870477355     -4.62580967280550
  C   -2.55134069978956     -2.31296688221151     -4.04999812383471
  H   -1.71204843080402     -1.25119377285520     -5.72609954608900
  H   -0.61474798965500     -1.32381650734599     -4.31767419798601
  H   -3.58811813926230     -2.01843468358965     -4.24365295385527
  H   -2.36234839195010     -3.24212367519706     -4.62388130316104
