21
Coordinates from ORCA-job FeCP2_plus2_small_opt.orca
  Fe  -5.81355597048531     -3.84042867808851     -1.54135874112337
  H   -5.28428994912955     -1.36437907261706     -2.91787928882937
  C   -5.53168824819687     -1.77611271921803     -1.94897308553047
  H   -7.78710667133108     -1.77906817684434     -1.95245977215107
  H   -3.51109338221261     -2.18548659120752     -1.03254802909620
  C   -6.86243382588960     -1.99693183309714     -1.43566564675887
  C   -4.58874557143647     -2.21257462522617     -0.94668058946775
  C   -6.74231257401204     -2.56951769942747     -0.11591246677417
  C   -5.33708231822073     -2.70211810370553      0.18642374417024
  H   -7.56150075513343     -2.85519230980534      0.52972481732659
  H   -4.91868117253173     -3.10657774597889      1.09791766861423
  H   -4.91950331894714     -4.57197574455999     -4.18155102308796
  C   -5.33587408751878     -4.97750877740766     -3.26960762646330
  H   -7.56104160639822     -4.83027232402541     -3.61061545505765
  H   -3.50731228933381     -5.48936639717619     -2.05242646943004
  C   -6.74043853712568     -5.11375246170045     -2.96580454960160
  C   -4.58511282025398     -5.46507010339606     -2.13726203887616
  C   -6.85773081638934     -5.68662694202107     -1.64594268036024
  C   -5.52585325165223     -5.90400833938064     -1.13398861886152
  H   -7.78121706984738     -5.90692569048267     -1.12805654273010
  H   -5.27642576395393     -6.31510566463382     -0.16533360591122
